test/data/three_phase/gc_12_47_1_pared_down_no_regulator/result.csv
# result.csv run at 2000-01-01 00:00:00 EST on 19 powerflow objects (not all are nodes)
node_name,voltA_real,voltA_imag,voltB_real,voltB_imag,voltC_real,voltC_imag
GC-12-47-1_load_2,276.922391,-0.056781,-138.509431,-239.773729,-138.408503,239.834182
GC-12-47-1_meter_2,276.922391,-0.056781,-138.509431,-239.773729,-138.408503,239.834182
GC-12-47-1_meter_4,7199.434875,-0.639372,-3600.279635,-6234.178443,-3599.154835,6234.832172
GC-12-47-1_node_9,7194.778063,-0.835743,-3598.079946,-6229.943215,-3596.582731,6230.860004
GC-12-47-1_node_21,7197.357018,-1.554187,-3600.027471,-6231.876784,-3597.289563,6233.476837
GC-12-47-1_node_27,7199.434875,-0.639372,-3600.279635,-6234.178443,-3599.154835,6234.832172
GC-12-47-1_node_28,7200.000000,0.000000,-3600.000000,-6235.000000,-3600.000000,6235.000000
